Version 4
SHEET 1 880 680
WIRE 256 -160 -32 -160
WIRE 400 -160 256 -160
WIRE 784 -160 400 -160
WIRE -64 -112 -96 -112
WIRE 48 -112 0 -112
WIRE 368 -96 336 -96
WIRE 464 -96 432 -96
WIRE -96 -32 -96 -112
WIRE -64 -32 -96 -32
WIRE 48 -32 48 -112
WIRE 48 -32 16 -32
WIRE 336 -16 336 -96
WIRE 368 -16 336 -16
WIRE 464 -16 464 -96
WIRE 464 -16 448 -16
WIRE 784 48 784 -160
WIRE -32 64 -32 -160
WIRE 400 64 400 -160
WIRE -320 80 -448 80
WIRE -288 80 -320 80
WIRE -192 80 -224 80
WIRE -96 80 -96 -32
WIRE -96 80 -112 80
WIRE -64 80 -96 80
WIRE 336 80 336 -16
WIRE 336 80 288 80
WIRE 368 80 336 80
WIRE 48 96 48 -32
WIRE 48 96 0 96
WIRE 64 96 48 96
WIRE 160 96 128 96
WIRE 288 96 288 80
WIRE 288 96 240 96
WIRE 464 96 464 -16
WIRE 464 96 432 96
WIRE 560 96 464 96
WIRE 688 96 640 96
WIRE -448 112 -448 80
WIRE -64 112 -96 112
WIRE 368 112 352 112
WIRE -96 176 -96 112
WIRE 256 176 256 -160
WIRE 256 176 -96 176
WIRE 352 176 352 112
WIRE 352 176 256 176
WIRE -32 192 -32 128
WIRE -32 192 -448 192
WIRE 400 192 400 128
WIRE 400 192 -32 192
WIRE 688 192 688 96
WIRE 688 192 400 192
WIRE 784 192 784 128
WIRE 784 192 688 192
WIRE 400 224 400 192
FLAG 400 224 0
DATAFLAG -320 80 ""
SYMBOL voltage 784 32 R0
WINDOW 123 0 0 Left 2
WINDOW 39 0 0 Left 2
SYMATTR InstName V1
SYMATTR Value 3.3V
SYMBOL res -96 64 R90
WINDOW 0 0 56 VBottom 2
WINDOW 3 32 56 VTop 2
SYMATTR InstName R1
SYMATTR Value 4.7k
SYMBOL cap -224 64 R90
WINDOW 0 0 32 VBottom 2
WINDOW 3 32 32 VTop 2
SYMATTR InstName C1
SYMATTR Value 10µF
SYMBOL res 656 80 R90
WINDOW 0 0 56 VBottom 2
WINDOW 3 32 56 VTop 2
SYMATTR InstName R2
SYMATTR Value 10k
SYMBOL res 464 -32 R90
WINDOW 0 0 56 VBottom 2
WINDOW 3 32 56 VTop 2
SYMATTR InstName R3
SYMATTR Value 150K
SYMBOL cap 432 -112 R90
WINDOW 0 0 32 VBottom 2
WINDOW 3 32 32 VTop 2
SYMATTR InstName C2
SYMATTR Value 1nF
SYMBOL res 32 -48 R90
WINDOW 0 0 56 VBottom 2
WINDOW 3 32 56 VTop 2
SYMATTR InstName R4
SYMATTR Value 150k
SYMBOL cap 128 80 R90
WINDOW 0 0 32 VBottom 2
WINDOW 3 32 32 VTop 2
SYMATTR InstName C3
SYMATTR Value 10µF
SYMBOL res 256 80 R90
WINDOW 0 0 56 VBottom 2
WINDOW 3 32 56 VTop 2
SYMATTR InstName R5
SYMATTR Value 4.7k
SYMBOL cap 0 -128 R90
WINDOW 0 0 32 VBottom 2
WINDOW 3 32 32 VTop 2
SYMATTR InstName C4
SYMATTR Value 1nF
SYMBOL voltage -448 96 R0
WINDOW 123 24 124 Left 2
WINDOW 39 0 0 Left 2
WINDOW 3 24 152 Left 2
SYMATTR InstName V2
SYMATTR Value SINE(0.0000 0.0003 1000)
SYMBOL Opamps\\LT1078 -32 32 R0
SYMATTR InstName U1
SYMBOL Opamps\\LT1078 400 32 R0
SYMATTR InstName U2
TEXT -482 248 Left 2 !.tran 1
TEXT -432 -144 Left 2 !;ac lin 1000 0.001k 1k
